%chk=conformer2.chk
%nprocshared=8
%mem=20GB
#p B97-3c Opt Freq Int=UltraFine

B97-3c geometry and frequencies for CC1CC2CC3CCCC2C13C, conformer 2

0 1
C        -2.3824678631      -1.4041285063      -0.5193407085
C        -1.6620872682      -0.5006441112       0.4763437847
C        -2.0444446194       0.9953516659       0.4617089889
C        -0.7256079954       1.6146308898       0.0149868565
C        -0.5496044976       1.0368833166      -1.4494925179
C         0.4970717839       0.0212591111      -0.9998598494
C         1.7977609218      -0.6951120089      -1.3021998844
C         2.5923018076      -0.2187888877      -0.0138251725
C         1.8566389840       0.8459933021       0.9252536964
C         0.2781512166       0.8329256477       0.9932285936
C        -0.1123298186      -0.4960887570       0.3674926594
C         0.4195061514      -1.7848500023       1.0000067848
H        -2.1139695780      -2.4412883512      -0.3279601704
H        -2.1233843095      -1.1830533384      -1.5494622208
H        -3.4603952744      -1.3054120998      -0.4022971752
H        -1.9023943579      -0.8889743476       1.4726714110
H        -2.3420412693       1.3333805969       1.4559750394
H        -2.8581927038       1.2236900784      -0.2251780615
H        -0.6827463783       2.7025561310       0.0710593004
H        -0.1313652820       1.7686494446      -2.1422862248
H        -1.4924131788       0.6872469951      -1.8621305679
H         1.0881086172       0.9001246140      -0.7493980853
H         2.2701040654      -0.2999014833      -2.2019330828
H         1.7600527471      -1.7800301279      -1.3909494900
H         3.5227066003       0.2520877566      -0.3360251781
H         2.8763560210      -1.0810038932       0.5840367055
H         2.2064857753       1.8483750959       0.6623866066
H         2.2207846264       0.6602958676       1.9401680350
H        -0.0394988430       1.0190526500       2.0251672432
H         0.8401865844      -2.4653456680       0.2677106837
H        -0.3889269988      -2.3185162117       1.4949892396
H         1.1689321310      -1.5803573316       1.7579838497
