%chk=20250505_03.chk
%NProcShared=4
%Mem=8GB
#P B3LYP/6-31G(d) Opt Freq Density=Current

Generated by RDKit

0 1
C      4.063350    -0.696321    -1.439003
C      2.858390    -1.001229    -0.939645
C      2.177944    -0.171584     0.147989
C      3.039968    -0.224789     1.430099
C      2.036839     1.299675    -0.345078
C      0.793310     1.969048     0.237920
C     -0.535394     1.294091    -0.265246
C     -0.923880     2.004586    -1.592538
C     -1.615330     1.585098     0.816817
C     -2.910100     0.801255     0.629212
C     -2.631892    -0.699495     0.644609
C     -1.667416    -1.151081    -0.479596
C     -1.378118    -2.660990    -0.255742
C     -2.386764    -1.082064    -1.855717
C     -0.332763    -0.274885    -0.491977
C      0.777983    -0.789793     0.475578
H      4.617689     0.167970    -1.088206
H      4.499711    -1.314516    -2.216760
H      2.350723    -1.870166    -1.350356
H      2.569654     0.364411     2.246077
H      4.053852     0.193067     1.254381
H      3.152606    -1.274618     1.777915
H      2.935115     1.896047    -0.071385
H      1.962422     1.340462    -1.454515
H      0.881244     1.918364     1.345466
H      0.819500     3.054639    -0.001845
H     -0.250050     1.702452    -2.421563
H     -1.963823     1.815857    -1.897158
H     -0.858178     3.108848    -1.488693
H     -1.853220     2.671860     0.832666
H     -1.224575     1.330579     1.827302
H     -3.592012     1.040847     1.473989
H     -3.437488     1.109001    -0.294939
H     -2.201981    -0.963249     1.637015
H     -3.600072    -1.240990     0.557843
H     -2.296745    -3.271933    -0.395241
H     -1.037217    -2.866633     0.781243
H     -0.614251    -3.025445    -0.976603
H     -3.246433    -1.786240    -1.890310
H     -1.691671    -1.359465    -2.677117
H     -2.812348    -0.095780    -2.083561
H      0.106357    -0.414646    -1.505113
H      0.466477    -0.542959     1.514797
H      0.898590    -1.889284     0.455468

